LAMMPS (29 Sep 2021 - Update 1)
# Test LAMMPS input file for single DeFDe

# Initialize simulation

clear

units real
atom_style full
boundary p p p
dielectric 1
special_bonds dreiding

bond_style harmonic
angle_style harmonic
dihedral_style harmonic
improper_style umbrella
pair_style hybrid/overlay hbond/dreiding/lj 4 9.0 11.0 90 lj/cut 8.50000

# Read data file
read_data frag5.dat
Reading data file ...
  triclinic box = (0.0000000 0.0000000 0.0000000) to (15.000000 15.000000 15.000000) with tilt (0.0000000 0.0000000 0.0000000)
  reading atoms ...
  1505 atoms
  scanning bonds ...
  scanning angles ...
  reading bonds ...
  1004 bonds
  reading angles ...
  506 angles
Finding 1-2 1-3 1-4 neighbors ...
     4 = max # of 1-2 neighbors
     3 = max # of 1-3 neighbors
     4 = max # of special neighbors

# Dreiding potential information

bond_coeff 1 350 1.371
bond_coeff 2 350 1.09
bond_coeff 3 350 0.98

angle_coeff 1 50 109.471
angle_coeff 2 50 104.51

improper_coeff 1 40 0

pair_coeff 1 1 lj/cut 0.0725 3.472
pair_coeff 1 2 lj/cut 0.0830346313293435 3.67898051095681
pair_coeff 1 3 lj/cut 0.0331963853453957 3.33062156361241
pair_coeff 1 4 lj/cut 0.00269258240356725 3.32957895236019
pair_coeff 1 5 lj/cut 0.0832961583748014 3.43813484319623
pair_coeff 2 2 lj/cut 0.0951 3.8983
pair_coeff 2 3 lj/cut 0.0380199947396104 3.52917391183829
pair_coeff 2 4 lj/cut 0.00308382878902186 3.52806914614779
pair_coeff 2 5 lj/cut 0.0953995283007206 3.64309650983885
pair_coeff 3 3 lj/cut 0.0152 3.195
pair_coeff 3 4 lj/cut 0.0012328828005938 3.19399984345648
pair_coeff 3 5 lj/cut 0.0381397430510485 3.29813538230316
pair_coeff 4 4 lj/cut 1e-04 3.193
pair_coeff 4 5 lj/cut 0.0030935416596516 3.29710294046152
pair_coeff 5 5 lj/cut 0.0957 3.4046
pair_coeff 1 5 hbond/dreiding/lj 4 j 9.50 2.75 4 9.0 11.0 90
pair_coeff 5 5 hbond/dreiding/lj 4 j 9.50 2.75 4 9.0 11.0 90

neighbor 2 bin
neigh_modify every 2 one 10000

# Gemoetric relaxation
fix 1 all box/relax iso 1.0 vmax 0.001
minimize 1.0e-4 1.0e-6 10000 10000
  update every 1 steps, delay 0 steps, check yes
Step Temp E_pair E_mol TotEng Press Volume
0            0 1.4225128e+27     193.7667 1.4225128e+27 1.156023e+29         3375
Loop time of 4.60218 on 32 procs for 5331 steps with 1505 atoms

Minimization stats:
  Stopping criterion = energy tolerance
  Energy initial, next-to-last, final =
  Force two-norm initial, final = 1.9335191e+30 122.72546
  Force max component initial, final = 1.3497034e+30 98.184412
  Final line search alpha, max atom move = 2.1070302e-05 0.0020687752
  Iterations, force evaluations = 5331 5391

# MD simulation
velocity all create 300.0 12345 rot yes dist gaussian
timestep 1.0
fix 2 all nvt temp 300.0 300.0 1

# Compute interaction energy
group WAT molecule <> 2 501
1500 atoms in group WAT
group MOL molecule 1
5 atoms in group MOL

compute w WAT group/group MOL pair yes
fix 3 all ave/time 10 5 100 c_w file outa

# Outputs
thermo 100 # Output thermodynamic data every nth step
#dump mf1 all xyz 10000 mol_*.xyz

# Run
run 1000000
  update every 2 steps, delay 10 steps, check yes
Step Temp E_pair E_mol TotEng Press Volume
5331          300   -1079.8101    19.302597    284.43404    1766.8619    37655.765
Averages over the last 5001 of 10002 rows, steps 505400 to 1005331:
Temp E_pair E_mol TotEng Press Volume
300.104 -1516.01 473.522 302.922 11.8243 37655.8
Loop time of 608.193 on 32 procs for 1000000 steps with 1505 atoms

# Output the system volume
variable v equal vol
print 'The system volume is $v'
The system volume is 37655.7653451422

# Outputs
variable A equal xhi-xlo
variable B equal yhi-ylo
variable C equal zhi-zlo
variable D equal xy
variable E equal xz
variable F equal yz
print 'Lattice vectors'
Lattice vectors
print '$A 0 0'
print '$D $B 0'
print '$E $F $C'
