LAMMPS (29 Sep 2021 - Update 1)
# Test LAMMPS input file for single DeFDe

# Initialize simulation

clear

units real
atom_style full
boundary p p p
dielectric 1
special_bonds dreiding

bond_style harmonic
angle_style harmonic
dihedral_style harmonic
improper_style umbrella
pair_style hybrid/overlay hbond/dreiding/lj 4 9.0 11.0 90 lj/cut 8.50000

# Read data file
read_data frag5.dat
Reading data file ...
  triclinic box = (0.0000000 0.0000000 0.0000000) to (15.000000 15.000000 15.000000) with tilt (0.0000000 0.0000000 0.0000000)
  reading atoms ...
  1509 atoms
  scanning bonds ...
  scanning angles ...
  scanning dihedrals ...
  scanning impropers ...
  reading bonds ...
  1008 bonds
  reading angles ...
  512 angles
  reading dihedrals ...
  10 dihedrals
  reading impropers ...
  2 impropers
Finding 1-2 1-3 1-4 neighbors ...
     4 = max # of 1-2 neighbors
     5 = max # of 1-3 neighbors
     8 = max # of special neighbors

# Dreiding potential information

bond_coeff 1 700 1.275
bond_coeff 2 350 0.935
bond_coeff 3 700 1.22
bond_coeff 4 350 1.43
bond_coeff 5 350 1.09
bond_coeff 6 350 0.98

angle_coeff 1 50 120
angle_coeff 2 50 120
angle_coeff 3 50 109.471
angle_coeff 4 50 104.51

dihedral_coeff 1 5.625 -1 2
dihedral_coeff 2 0.0833333333333333 -1 6

improper_coeff 1 40 0

pair_coeff 1 1 lj/cut 0.0774 3.6621
pair_coeff 1 2 lj/cut 0.0857947550844456 3.77835472527395
pair_coeff 1 3 lj/cut 0.0860649754545948 3.53100349192691
pair_coeff 1 4 lj/cut 0.0857947550844456 3.77835472527395
pair_coeff 1 5 lj/cut 0.00278208554864871 3.41951536039831
pair_coeff 1 6 lj/cut 0.0342998542270955 3.42058613398347
pair_coeff 1 7 lj/cut 0.0860649754545948 3.53100349192691
pair_coeff 2 2 lj/cut 0.0951 3.8983
pair_coeff 2 3 lj/cut 0.0953995283007206 3.64309650983885
pair_coeff 2 4 lj/cut 0.0951 3.8983
pair_coeff 2 5 lj/cut 0.00308382878902186 3.52806914614779
pair_coeff 2 6 lj/cut 0.0380199947396104 3.52917391183829
pair_coeff 2 7 lj/cut 0.0953995283007206 3.64309650983885
pair_coeff 3 3 lj/cut 0.0957 3.4046
pair_coeff 3 4 lj/cut 0.0953995283007206 3.64309650983885
pair_coeff 3 5 lj/cut 0.0030935416596516 3.29710294046152
pair_coeff 3 6 lj/cut 0.0381397430510485 3.29813538230316
pair_coeff 3 7 lj/cut 0.0957 3.4046
pair_coeff 4 4 lj/cut 0.0951 3.8983
pair_coeff 4 5 lj/cut 0.00308382878902186 3.52806914614779
pair_coeff 4 6 lj/cut 0.0380199947396104 3.52917391183829
pair_coeff 4 7 lj/cut 0.0953995283007206 3.64309650983885
pair_coeff 5 5 lj/cut 1e-04 3.193
pair_coeff 5 6 lj/cut 0.0012328828005938 3.19399984345648
pair_coeff 5 7 lj/cut 0.0030935416596516 3.29710294046152
pair_coeff 6 6 lj/cut 0.0152 3.195
pair_coeff 6 7 lj/cut 0.0381397430510485 3.29813538230316
pair_coeff 7 7 lj/cut 0.0957 3.4046
pair_coeff 1 1 hbond/dreiding/lj 5 j 9.50 2.75 4 9.0 11.0 90
pair_coeff 1 3 hbond/dreiding/lj 5 i 9.50 2.75 4 9.0 11.0 90
pair_coeff 1 7 hbond/dreiding/lj 5 i 9.50 2.75 4 9.0 11.0 90
pair_coeff 1 7 hbond/dreiding/lj 5 j 9.50 2.75 4 9.0 11.0 90
pair_coeff 3 7 hbond/dreiding/lj 5 j 9.50 2.75 4 9.0 11.0 90
pair_coeff 7 7 hbond/dreiding/lj 5 j 9.50 2.75 4 9.0 11.0 90

neighbor 2 bin
neigh_modify every 2 one 10000

# Gemoetric relaxation
fix 1 all box/relax iso 1.0 vmax 0.001
minimize 1.0e-4 1.0e-6 10000 10000
  update every 1 steps, delay 0 steps, check yes
Step Temp E_pair E_mol TotEng Press Volume
0            0 5.5166418e+16    262.99836 5.5166418e+16 4.483169e+18         3375
Loop time of 4.5882 on 32 procs for 5302 steps with 1509 atoms

Minimization stats:
  Stopping criterion = energy tolerance
  Energy initial, next-to-last, final =
  Force two-norm initial, final = 5.6022979e+18 102.39927
  Force max component initial, final = 2.2311462e+18 75.864996
  Final line search alpha, max atom move = 1.6533687e-05 0.0012543281
  Iterations, force evaluations = 5302 5303

# MD simulation
velocity all create 300.0 12345 rot yes dist gaussian
timestep 1.0
fix 2 all nvt temp 300.0 300.0 1

# Compute interaction energy
group WAT molecule <> 2 501
1500 atoms in group WAT
group MOL molecule 1
9 atoms in group MOL

compute w WAT group/group MOL pair yes
fix 3 all ave/time 10 5 100 c_w file outa

# Outputs
thermo 100 # Output thermodynamic data every nth step
#dump mf1 all xyz 10000 mol_*.xyz

# Run
run 1000000
  update every 2 steps, delay 10 steps, check yes
Step Temp E_pair E_mol TotEng Press Volume
5302          300   -1200.8938    24.470377    172.09502    1742.2859    37625.902
Averages over the last 5001 of 10002 rows, steps 505400 to 1005302:
Temp E_pair E_mol TotEng Press Volume
299.991 -1513.47 480.522 315.531 11.4574 37625.9
Loop time of 599.312 on 32 procs for 1000000 steps with 1509 atoms

# Output the system volume
variable v equal vol
print 'The system volume is $v'
The system volume is 37625.9024568352

# Outputs
variable A equal xhi-xlo
variable B equal yhi-ylo
variable C equal zhi-zlo
variable D equal xy
variable E equal xz
variable F equal yz
print 'Lattice vectors'
Lattice vectors
print '$A 0 0'
print '$D $B 0'
print '$E $F $C'
