LAMMPS (29 Sep 2021 - Update 1)
# Test LAMMPS input file for single DeFDe

# Initialize simulation

clear

units real
atom_style full
boundary p p p
dielectric 1
special_bonds dreiding

bond_style harmonic
angle_style harmonic
dihedral_style harmonic
improper_style umbrella
pair_style hybrid/overlay hbond/dreiding/lj 4 9.0 11.0 90 lj/cut 8.50000

# Read data file
read_data frag5.dat
Reading data file ...
  triclinic box = (0.0000000 0.0000000 0.0000000) to (15.000000 15.000000 15.000000) with tilt (0.0000000 0.0000000 0.0000000)
  reading atoms ...
  1514 atoms
  scanning bonds ...
  scanning angles ...
  scanning dihedrals ...
  scanning impropers ...
  reading bonds ...
  1015 bonds
  reading angles ...
  523 angles
  reading dihedrals ...
  32 dihedrals
  reading impropers ...
  7 impropers
Finding 1-2 1-3 1-4 neighbors ...
     3 = max # of 1-2 neighbors
     5 = max # of 1-3 neighbors
     8 = max # of special neighbors

# Dreiding potential information

bond_coeff 1 525 1.39
bond_coeff 2 350 1.305
bond_coeff 3 350 1.73
bond_coeff 4 700 1.275
bond_coeff 5 350 1.7
bond_coeff 6 350 1.02
bond_coeff 7 350 0.99
bond_coeff 8 350 0.98

angle_coeff 1 50 120
angle_coeff 2 50 120
angle_coeff 3 50 92.1
angle_coeff 4 50 120
angle_coeff 5 50 104.51

dihedral_coeff 1 3.125 -1 2
dihedral_coeff 2 1.25 -1 2
dihedral_coeff 3 0.5 -1 2
dihedral_coeff 4 11.25 -1 2

improper_coeff 1 40 0

pair_coeff 1 1 lj/cut 0.0951 3.8983
pair_coeff 1 2 lj/cut 0.0857947550844456 3.77835472527395
pair_coeff 1 3 lj/cut 0.180871224908773 3.96360303259547
pair_coeff 1 4 lj/cut 0.0951 3.8983
pair_coeff 1 5 lj/cut 0.0380199947396104 3.52917391183829
pair_coeff 1 6 lj/cut 0.00308382878902186 3.52806914614779
pair_coeff 1 7 lj/cut 0.0953995283007206 3.64309650983885
pair_coeff 2 2 lj/cut 0.0774 3.6621
pair_coeff 2 3 lj/cut 0.163173527264688 3.84164847428809
pair_coeff 2 4 lj/cut 0.0857947550844456 3.77835472527395
pair_coeff 2 5 lj/cut 0.0342998542270955 3.42058613398347
pair_coeff 2 6 lj/cut 0.00278208554864871 3.41951536039831
pair_coeff 2 7 lj/cut 0.0860649754545948 3.53100349192691
pair_coeff 3 3 lj/cut 0.344 4.03
pair_coeff 3 4 lj/cut 0.180871224908773 3.96360303259547
pair_coeff 3 5 lj/cut 0.0723104418462507 3.58829346625941
pair_coeff 3 6 lj/cut 0.00586515131944607 3.58717019389936
pair_coeff 3 7 lj/cut 0.18144089946867 3.70412445795224
pair_coeff 4 4 lj/cut 0.0951 3.8983
pair_coeff 4 5 lj/cut 0.0380199947396104 3.52917391183829
pair_coeff 4 6 lj/cut 0.00308382878902186 3.52806914614779
pair_coeff 4 7 lj/cut 0.0953995283007206 3.64309650983885
pair_coeff 5 5 lj/cut 0.0152 3.195
pair_coeff 5 6 lj/cut 0.0012328828005938 3.19399984345648
pair_coeff 5 7 lj/cut 0.0381397430510485 3.29813538230316
pair_coeff 6 6 lj/cut 1e-04 3.193
pair_coeff 6 7 lj/cut 0.0030935416596516 3.29710294046152
pair_coeff 7 7 lj/cut 0.0957 3.4046
pair_coeff 2 2 hbond/dreiding/lj 6 j 9.50 2.75 4 9.0 11.0 90
pair_coeff 2 7 hbond/dreiding/lj 6 i 9.50 2.75 4 9.0 11.0 90
pair_coeff 2 7 hbond/dreiding/lj 6 j 9.50 2.75 4 9.0 11.0 90
pair_coeff 7 7 hbond/dreiding/lj 6 j 9.50 2.75 4 9.0 11.0 90

neighbor 2 bin
neigh_modify every 2 one 10000

# Gemoetric relaxation
fix 1 all box/relax iso 1.0 vmax 0.001
minimize 1.0e-4 1.0e-6 10000 10000
  update every 1 steps, delay 0 steps, check yes
Step Temp E_pair E_mol TotEng Press Volume
0            0 3.1351783e+16    237.04811 3.1351783e+16 2.5478424e+18         3375
Loop time of 4.13775 on 32 procs for 4984 steps with 1514 atoms

Minimization stats:
  Stopping criterion = energy tolerance
  Energy initial, next-to-last, final =
  Force two-norm initial, final = 3.2467234e+18 129.20773
  Force max component initial, final = 1.8076323e+18 105.24019
  Final line search alpha, max atom move = 2.0267877e-05 0.0021329953
  Iterations, force evaluations = 4984 4984

# MD simulation
velocity all create 300.0 12345 rot yes dist gaussian
timestep 1.0
fix 2 all nvt temp 300.0 300.0 1

# Compute interaction energy
group WAT molecule <> 2 501
1500 atoms in group WAT
group MOL molecule 1
14 atoms in group MOL

compute w WAT group/group MOL pair yes
fix 3 all ave/time 10 5 100 c_w file outa

# Outputs
thermo 100 # Output thermodynamic data every nth step
#dump mf1 all xyz 10000 mol_*.xyz

# Run
run 1000000
  update every 2 steps, delay 10 steps, check yes
Step Temp E_pair E_mol TotEng Press Volume
4984          300   -912.45993    29.850073    470.37982    1511.2569    37401.237
Averages over the last 5001 of 10002 rows, steps 505000 to 1004984:
Temp E_pair E_mol TotEng Press Volume
300.004 -1485.94 500.488 367.551 -16.2284 37401.2
Loop time of 602.269 on 32 procs for 1000000 steps with 1514 atoms

# Output the system volume
variable v equal vol
print 'The system volume is $v'
The system volume is 37401.2367559733

# Outputs
variable A equal xhi-xlo
variable B equal yhi-ylo
variable C equal zhi-zlo
variable D equal xy
variable E equal xz
variable F equal yz
print 'Lattice vectors'
Lattice vectors
print '$A 0 0'
print '$D $B 0'
print '$E $F $C'
