LAMMPS (29 Sep 2021 - Update 1)
# Test LAMMPS input file for single DeFDe

# Initialize simulation

clear

units real
atom_style full
boundary p p p
dielectric 1
special_bonds dreiding

bond_style harmonic
angle_style harmonic
dihedral_style harmonic
improper_style umbrella
pair_style hybrid/overlay hbond/dreiding/lj 4 9.0 11.0 90 lj/cut 8.50000

# Read data file
read_data frag5.dat
Reading data file ...
  triclinic box = (0.0000000 0.0000000 0.0000000) to (15.000000 15.000000 15.000000) with tilt (0.0000000 0.0000000 0.0000000)
  reading atoms ...
  1503 atoms
  scanning bonds ...
  scanning angles ...
  reading bonds ...
  1002 bonds
  reading angles ...
  501 angles
Finding 1-2 1-3 1-4 neighbors ...
     2 = max # of 1-2 neighbors
     1 = max # of 1-3 neighbors
     2 = max # of special neighbors

# Dreiding potential information

bond_coeff 1 350 0.98

angle_coeff 1 50 104.51

improper_coeff 1 40 0

pair_coeff 1 1 lj/cut 0.0957 3.4046
pair_coeff 1 2 lj/cut 0.0030935416596516 3.29710294046152
pair_coeff 2 2 lj/cut 1e-04 3.193
pair_coeff 1 1 hbond/dreiding/lj 2 j 9.50 2.75 4 9.0 11.0 90

neighbor 2 bin
neigh_modify every 2 one 10000

# Gemoetric relaxation
fix 1 all box/relax iso 1.0 vmax 0.001
minimize 1.0e-4 1.0e-6 10000 10000
  update every 1 steps, delay 0 steps, check yes
Step Temp E_pair E_mol TotEng Press Volume
0            0 1.6988757e+16    275.09017 1.6988757e+16 1.3806129e+18         3375
Loop time of 4.76258 on 32 procs for 5114 steps with 1503 atoms

Minimization stats:
  Stopping criterion = energy tolerance
  Energy initial, next-to-last, final =
  Force two-norm initial, final = 1.2684045e+18 111.29952
  Force max component initial, final = 4.6466028e+17 81.720451
  Final line search alpha, max atom move = 1.6627583e-05 0.0013588136
  Iterations, force evaluations = 5114 5116

# MD simulation
velocity all create 300.0 12345 rot yes dist gaussian
timestep 1.0
fix 2 all nvt temp 300.0 300.0 1

# Compute interaction energy
group WAT molecule <> 2 501
1500 atoms in group WAT
group MOL molecule 1
3 atoms in group MOL

compute w WAT group/group MOL pair yes
fix 3 all ave/time 10 5 100 c_w file outa

# Outputs
thermo 100 # Output thermodynamic data every nth step
#dump mf1 all xyz 10000 mol_*.xyz

# Run
run 1000000
  update every 2 steps, delay 10 steps, check yes
Step Temp E_pair E_mol TotEng Press Volume
5114          300   -1044.9881    19.478369    317.64333    1693.7669    38760.619
Averages over the last 5001 of 10002 rows, steps 505200 to 1005114:
Temp E_pair E_mol TotEng Press Volume
299.961 -1501.37 474.545 316.157 2.26848 38760.6
Loop time of 610.963 on 32 procs for 1000000 steps with 1503 atoms

# Output the system volume
variable v equal vol
print 'The system volume is $v'
The system volume is 38760.6187477327

# Outputs
variable A equal xhi-xlo
variable B equal yhi-ylo
variable C equal zhi-zlo
variable D equal xy
variable E equal xz
variable F equal yz
print 'Lattice vectors'
Lattice vectors
print '$A 0 0'
print '$D $B 0'
print '$E $F $C'
