LAMMPS (29 Sep 2021 - Update 1)
# Test LAMMPS input file for single DeFDe

# Initialize simulation

clear

units real
atom_style full
boundary p p p
dielectric 1
special_bonds dreiding

bond_style harmonic
angle_style harmonic
dihedral_style harmonic
improper_style umbrella
pair_style hybrid/overlay hbond/dreiding/lj 4 9.0 11.0 90 lj/cut 8.50000

# Read data file
read_data frag5.dat
Reading data file ...
  triclinic box = (0.0000000 0.0000000 0.0000000) to (15.000000 15.000000 15.000000) with tilt (0.0000000 0.0000000 0.0000000)
  reading atoms ...
  1509 atoms
  scanning bonds ...
  scanning angles ...
  scanning dihedrals ...
  reading bonds ...
  1008 bonds
  reading angles ...
  513 angles
  reading dihedrals ...
  12 dihedrals
Finding 1-2 1-3 1-4 neighbors ...
     4 = max # of 1-2 neighbors
     4 = max # of 1-3 neighbors
     8 = max # of special neighbors

# Dreiding potential information

bond_coeff 1 350 1.53
bond_coeff 2 350 1.09
bond_coeff 3 350 1.42
bond_coeff 4 350 0.98

angle_coeff 1 50 109.471
angle_coeff 2 50 104.51

dihedral_coeff 1 0.111111111111111 -1 3
dihedral_coeff 2 0.333333333333333 -1 3

improper_coeff 1 40 0

pair_coeff 1 1 lj/cut 0.0951 3.8983
pair_coeff 1 2 lj/cut 0.0953995283007206 3.64309650983885
pair_coeff 1 3 lj/cut 0.0380199947396104 3.52917391183829
pair_coeff 1 4 lj/cut 0.00308382878902186 3.52806914614779
pair_coeff 2 2 lj/cut 0.0957 3.4046
pair_coeff 2 3 lj/cut 0.0381397430510485 3.29813538230316
pair_coeff 2 4 lj/cut 0.0030935416596516 3.29710294046152
pair_coeff 3 3 lj/cut 0.0152 3.195
pair_coeff 3 4 lj/cut 0.0012328828005938 3.19399984345648
pair_coeff 4 4 lj/cut 1e-04 3.193
pair_coeff 2 2 hbond/dreiding/lj 4 j 9.50 2.75 4 9.0 11.0 90

neighbor 2 bin
neigh_modify every 2 one 10000

# Gemoetric relaxation
fix 1 all box/relax iso 1.0 vmax 0.001
minimize 1.0e-4 1.0e-6 10000 10000
  update every 1 steps, delay 0 steps, check yes
Step Temp E_pair E_mol TotEng Press Volume
0            0 1.1174733e+19    202.02275 1.1174733e+19 9.0812885e+20         3375
Loop time of 4.39318 on 32 procs for 5383 steps with 1509 atoms

Minimization stats:
  Stopping criterion = energy tolerance
  Energy initial, next-to-last, final =
  Force two-norm initial, final = 3.1600208e+21 105.73144
  Force max component initial, final = 2.0574338e+21 76.316628
  Final line search alpha, max atom move = 1.5363625e-05 0.0011725001
  Iterations, force evaluations = 5383 5388

# MD simulation
velocity all create 300.0 12345 rot yes dist gaussian
timestep 1.0
fix 2 all nvt temp 300.0 300.0 1

# Compute interaction energy
group WAT molecule <> 2 501
1500 atoms in group WAT
group MOL molecule 1
9 atoms in group MOL

compute w WAT group/group MOL pair yes
fix 3 all ave/time 10 5 100 c_w file outa

# Outputs
thermo 100 # Output thermodynamic data every nth step
#dump mf1 all xyz 10000 mol_*.xyz

# Run
run 1000000
  update every 2 steps, delay 10 steps, check yes
Step Temp E_pair E_mol TotEng Press Volume
5383          300   -979.89634    20.271455    388.89358    1663.6302      39457.2
Averages over the last 5001 of 10002 rows, steps 505400 to 1005383:
Temp E_pair E_mol TotEng Press Volume
299.862 -1483.77 481.059 345.184 -0.0805825 39457.2
Loop time of 601.479 on 32 procs for 1000000 steps with 1509 atoms

# Output the system volume
variable v equal vol
print 'The system volume is $v'
The system volume is 39457.1999017272

# Outputs
variable A equal xhi-xlo
variable B equal yhi-ylo
variable C equal zhi-zlo
variable D equal xy
variable E equal xz
variable F equal yz
print 'Lattice vectors'
Lattice vectors
print '$A 0 0'
print '$D $B 0'
print '$E $F $C'
