LAMMPS (29 Sep 2021 - Update 1)
# Test LAMMPS input file for single DeFDe

# Initialize simulation

clear

units real
atom_style full
boundary p p p
dielectric 1
special_bonds dreiding

bond_style harmonic
angle_style harmonic
dihedral_style harmonic
improper_style umbrella
pair_style hybrid/overlay hbond/dreiding/lj 4 9.0 11.0 90 lj/cut 8.50000

# Read data file
read_data frag5.dat
Reading data file ...
  triclinic box = (0.0000000 0.0000000 0.0000000) to (15.000000 15.000000 15.000000) with tilt (0.0000000 0.0000000 0.0000000)
  reading atoms ...
  1514 atoms
  scanning bonds ...
  scanning angles ...
  scanning dihedrals ...
  scanning impropers ...
  reading bonds ...
  1013 bonds
  reading angles ...
  522 angles
  reading dihedrals ...
  27 dihedrals
  reading impropers ...
  1 impropers
Finding 1-2 1-3 1-4 neighbors ...
     4 = max # of 1-2 neighbors
     6 = max # of 1-3 neighbors
    10 = max # of special neighbors

# Dreiding potential information

bond_coeff 1 350 1.43
bond_coeff 2 700 1.22
bond_coeff 3 350 1.53
bond_coeff 4 350 1.09
bond_coeff 5 350 1.42
bond_coeff 6 350 0.99
bond_coeff 7 350 0.98

angle_coeff 1 50 120
angle_coeff 2 50 109.471
angle_coeff 3 50 104.51

dihedral_coeff 1 0.0833333333333333 -1 6
dihedral_coeff 2 0.111111111111111 -1 3
dihedral_coeff 3 0.333333333333333 -1 3

improper_coeff 1 40 0

pair_coeff 1 1 lj/cut 0.0951 3.8983
pair_coeff 1 2 lj/cut 0.0951 3.8983
pair_coeff 1 3 lj/cut 0.0953995283007206 3.64309650983885
pair_coeff 1 4 lj/cut 0.0953995283007206 3.64309650983885
pair_coeff 1 5 lj/cut 0.0380199947396104 3.52917391183829
pair_coeff 1 6 lj/cut 0.00308382878902186 3.52806914614779
pair_coeff 2 2 lj/cut 0.0951 3.8983
pair_coeff 2 3 lj/cut 0.0953995283007206 3.64309650983885
pair_coeff 2 4 lj/cut 0.0953995283007206 3.64309650983885
pair_coeff 2 5 lj/cut 0.0380199947396104 3.52917391183829
pair_coeff 2 6 lj/cut 0.00308382878902186 3.52806914614779
pair_coeff 3 3 lj/cut 0.0957 3.4046
pair_coeff 3 4 lj/cut 0.0957 3.4046
pair_coeff 3 5 lj/cut 0.0381397430510485 3.29813538230316
pair_coeff 3 6 lj/cut 0.0030935416596516 3.29710294046152
pair_coeff 4 4 lj/cut 0.0957 3.4046
pair_coeff 4 5 lj/cut 0.0381397430510485 3.29813538230316
pair_coeff 4 6 lj/cut 0.0030935416596516 3.29710294046152
pair_coeff 5 5 lj/cut 0.0152 3.195
pair_coeff 5 6 lj/cut 0.0012328828005938 3.19399984345648
pair_coeff 6 6 lj/cut 1e-04 3.193
pair_coeff 3 3 hbond/dreiding/lj 6 j 9.50 2.75 4 9.0 11.0 90
pair_coeff 3 4 hbond/dreiding/lj 6 i 9.50 2.75 4 9.0 11.0 90

neighbor 2 bin
neigh_modify every 2 one 10000

# Gemoetric relaxation
fix 1 all box/relax iso 1.0 vmax 0.001
minimize 1.0e-4 1.0e-6 10000 10000
  update every 1 steps, delay 0 steps, check yes
Step Temp E_pair E_mol TotEng Press Volume
0            0 1.294941e+20    260.18861 1.294941e+20 1.0523503e+22         3375
Loop time of 4.73722 on 32 procs for 5297 steps with 1514 atoms

Minimization stats:
  Stopping criterion = energy tolerance
  Energy initial, next-to-last, final =
  Force two-norm initial, final = 4.5606251e+22 96.960991
  Force max component initial, final = 3.0703256e+22 59.725264
  Final line search alpha, max atom move = 1.1409632e-05 0.00068144332
  Iterations, force evaluations = 5297 5308

# MD simulation
velocity all create 300.0 12345 rot yes dist gaussian
timestep 1.0
fix 2 all nvt temp 300.0 300.0 1

# Compute interaction energy
group WAT molecule <> 2 501
1500 atoms in group WAT
group MOL molecule 1
14 atoms in group MOL

compute w WAT group/group MOL pair yes
fix 3 all ave/time 10 5 100 c_w file outa

# Outputs
thermo 100 # Output thermodynamic data every nth step
#dump mf1 all xyz 10000 mol_*.xyz

# Run
run 1000000
  update every 2 steps, delay 10 steps, check yes
Step Temp E_pair E_mol TotEng Press Volume
5297          300   -970.21571    28.265857    411.03983    1712.3658     37926.35
Averages over the last 5001 of 10002 rows, steps 505300 to 1005297:
Temp E_pair E_mol TotEng Press Volume
300.089 -1488.19 492.587 357.789 -17.724 37926.3
Loop time of 606.24 on 32 procs for 1000000 steps with 1514 atoms

# Output the system volume
variable v equal vol
print 'The system volume is $v'
The system volume is 37926.3497902139

# Outputs
variable A equal xhi-xlo
variable B equal yhi-ylo
variable C equal zhi-zlo
variable D equal xy
variable E equal xz
variable F equal yz
print 'Lattice vectors'
Lattice vectors
print '$A 0 0'
print '$D $B 0'
print '$E $F $C'
