LAMMPS (29 Sep 2021 - Update 1)
# Test LAMMPS input file for single DeFDe

# Initialize simulation

clear

units real
atom_style full
boundary p p p
dielectric 1
special_bonds dreiding

bond_style harmonic
angle_style harmonic
dihedral_style harmonic
improper_style umbrella
pair_style hybrid/overlay hbond/dreiding/lj 4 9.0 11.0 90 lj/cut 8.50000

# Read data file
read_data frag5.dat
Reading data file ...
  triclinic box = (0.0000000 0.0000000 0.0000000) to (15.000000 15.000000 15.000000) with tilt (0.0000000 0.0000000 0.0000000)
  reading atoms ...
  1504 atoms
  scanning bonds ...
  scanning angles ...
  scanning impropers ...
  reading bonds ...
  1003 bonds
  reading angles ...
  503 angles
  reading impropers ...
  1 impropers
Finding 1-2 1-3 1-4 neighbors ...
     3 = max # of 1-2 neighbors
     2 = max # of 1-3 neighbors
     3 = max # of special neighbors

# Dreiding potential information

bond_coeff 1 700 1.165
bond_coeff 2 350 0.935
bond_coeff 3 350 0.98

angle_coeff 1 50 120
angle_coeff 2 50 104.51

improper_coeff 1 40 0

pair_coeff 1 1 lj/cut 0.0957 3.4046
pair_coeff 1 2 lj/cut 0.0860649754545948 3.53100349192691
pair_coeff 1 3 lj/cut 0.0030935416596516 3.29710294046152
pair_coeff 1 4 lj/cut 0.0957 3.4046
pair_coeff 2 2 lj/cut 0.0774 3.6621
pair_coeff 2 3 lj/cut 0.00278208554864871 3.41951536039831
pair_coeff 2 4 lj/cut 0.0860649754545948 3.53100349192691
pair_coeff 3 3 lj/cut 1e-04 3.193
pair_coeff 3 4 lj/cut 0.0030935416596516 3.29710294046152
pair_coeff 4 4 lj/cut 0.0957 3.4046
pair_coeff 1 2 hbond/dreiding/lj 3 j 9.50 2.75 4 9.0 11.0 90
pair_coeff 2 2 hbond/dreiding/lj 3 j 9.50 2.75 4 9.0 11.0 90
pair_coeff 2 4 hbond/dreiding/lj 3 i 9.50 2.75 4 9.0 11.0 90
pair_coeff 1 4 hbond/dreiding/lj 3 j 9.50 2.75 4 9.0 11.0 90
pair_coeff 2 4 hbond/dreiding/lj 3 j 9.50 2.75 4 9.0 11.0 90
pair_coeff 4 4 hbond/dreiding/lj 3 j 9.50 2.75 4 9.0 11.0 90

neighbor 2 bin
neigh_modify every 2 one 10000

# Gemoetric relaxation
fix 1 all box/relax iso 1.0 vmax 0.001
minimize 1.0e-4 1.0e-6 10000 10000
  update every 1 steps, delay 0 steps, check yes
Step Temp E_pair E_mol TotEng Press Volume
0            0 1.2107732e+17     204.8057 1.2107732e+17 9.8395022e+18         3375
Loop time of 4.77687 on 32 procs for 5073 steps with 1504 atoms

Minimization stats:
  Stopping criterion = energy tolerance
  Energy initial, next-to-last, final =
  Force two-norm initial, final = 2.3764852e+19 95.021054
  Force max component initial, final = 1.4969890e+19 59.192981
  Final line search alpha, max atom move = 1.1747644e-05 0.00069537805
  Iterations, force evaluations = 5073 5076

# MD simulation
velocity all create 300.0 12345 rot yes dist gaussian
timestep 1.0
fix 2 all nvt temp 300.0 300.0 1

# Compute interaction energy
group WAT molecule <> 2 501
1500 atoms in group WAT
group MOL molecule 1
4 atoms in group MOL

compute w WAT group/group MOL pair yes
fix 3 all ave/time 10 5 100 c_w file outa

# Outputs
thermo 100 # Output thermodynamic data every nth step
#dump mf1 all xyz 10000 mol_*.xyz

# Run
run 1000000
  update every 2 steps, delay 10 steps, check yes
Step Temp E_pair E_mol TotEng Press Volume
5073          300   -1017.4488    18.391409    344.98983    1690.0134    38174.007
Averages over the last 5001 of 10002 rows, steps 505100 to 1005073:
Temp E_pair E_mol TotEng Press Volume
299.966 -1521.77 474.445 296.573 -0.608321 38174
Loop time of 605.045 on 32 procs for 1000000 steps with 1504 atoms

# Output the system volume
variable v equal vol
print 'The system volume is $v'
The system volume is 38174.0071902804

# Outputs
variable A equal xhi-xlo
variable B equal yhi-ylo
variable C equal zhi-zlo
variable D equal xy
variable E equal xz
variable F equal yz
print 'Lattice vectors'
Lattice vectors
print '$A 0 0'
print '$D $B 0'
print '$E $F $C'
