LAMMPS (29 Sep 2021 - Update 1)
# Test LAMMPS input file for single DeFDe

# Initialize simulation

clear

units real
atom_style full
boundary p p p
dielectric 1
special_bonds dreiding

bond_style harmonic
angle_style harmonic
dihedral_style harmonic
improper_style umbrella
pair_style hybrid/overlay hbond/dreiding/lj 4 9.0 11.0 90 lj/cut 8.50000

# Read data file
read_data frag5.dat
Reading data file ...
  triclinic box = (0.0000000 0.0000000 0.0000000) to (15.000000 15.000000 15.000000) with tilt (0.0000000 0.0000000 0.0000000)
  reading atoms ...
  1502 atoms
  scanning bonds ...
  scanning angles ...
  reading bonds ...
  1001 bonds
  reading angles ...
  500 angles
Finding 1-2 1-3 1-4 neighbors ...
     2 = max # of 1-2 neighbors
     1 = max # of 1-3 neighbors
     2 = max # of special neighbors

# Dreiding potential information

bond_coeff 1 350 1.68
bond_coeff 2 350 0.98

angle_coeff 1 50 104.51

improper_coeff 1 40 0

pair_coeff 1 1 lj/cut 0.51 4.15
pair_coeff 1 2 lj/cut 0.0880454428122206 3.64132530818108
pair_coeff 1 3 lj/cut 0.00714142842854285 3.64018543483708
pair_coeff 1 4 lj/cut 0.220923063531176 3.7588681807161
pair_coeff 2 2 lj/cut 0.0152 3.195
pair_coeff 2 3 lj/cut 0.0012328828005938 3.19399984345648
pair_coeff 2 4 lj/cut 0.0381397430510485 3.29813538230316
pair_coeff 3 3 lj/cut 1e-04 3.193
pair_coeff 3 4 lj/cut 0.0030935416596516 3.29710294046152
pair_coeff 4 4 lj/cut 0.0957 3.4046
pair_coeff 4 4 hbond/dreiding/lj 3 j 9.50 2.75 4 9.0 11.0 90

neighbor 2 bin
neigh_modify every 2 one 10000

# Gemoetric relaxation
fix 1 all box/relax iso 1.0 vmax 0.001
minimize 1.0e-4 1.0e-6 10000 10000
  update every 1 steps, delay 0 steps, check yes
Step Temp E_pair E_mol TotEng Press Volume
0            0 1.4245958e+18    185.47775 1.4245958e+18 1.1577159e+20         3375
Loop time of 4.77353 on 32 procs for 5414 steps with 1502 atoms

Minimization stats:
  Stopping criterion = energy tolerance
  Energy initial, next-to-last, final =
  Force two-norm initial, final = 3.3924730e+20 103.55619
  Force max component initial, final = 2.2566652e+20 73.536514
  Final line search alpha, max atom move = 1.4699922e-05 0.0010809811
  Iterations, force evaluations = 5414 5419

# MD simulation
velocity all create 300.0 12345 rot yes dist gaussian
timestep 1.0
fix 2 all nvt temp 300.0 300.0 1

# Compute interaction energy
group WAT molecule <> 2 501
1500 atoms in group WAT
group MOL molecule 1
2 atoms in group MOL

compute w WAT group/group MOL pair yes
fix 3 all ave/time 10 5 100 c_w file outa

# Outputs
thermo 100 # Output thermodynamic data every nth step
#dump mf1 all xyz 10000 mol_*.xyz

# Run
run 1000000
  update every 2 steps, delay 10 steps, check yes
Step Temp E_pair E_mol TotEng Press Volume
5414          300   -983.40587    17.453637    376.30653    1669.0804    39062.633
Averages over the last 5001 of 10002 rows, steps 505500 to 1005414:
Temp E_pair E_mol TotEng Press Volume
299.939 -1519.88 481.992 304.094 -13.1045 39062.6
Loop time of 614.161 on 32 procs for 1000000 steps with 1502 atoms

# Output the system volume
variable v equal vol
print 'The system volume is $v'
The system volume is 39062.6332967067

# Outputs
variable A equal xhi-xlo
variable B equal yhi-ylo
variable C equal zhi-zlo
variable D equal xy
variable E equal xz
variable F equal yz
print 'Lattice vectors'
Lattice vectors
print '$A 0 0'
print '$D $B 0'
print '$E $F $C'
