LAMMPS (29 Sep 2021 - Update 1)
# Test LAMMPS input file for single DeFDe

# Initialize simulation

clear

units real
atom_style full
boundary p p p
dielectric 1
special_bonds dreiding

bond_style harmonic
angle_style harmonic
dihedral_style harmonic
improper_style umbrella
pair_style hybrid/overlay hbond/dreiding/lj 4 9.0 11.0 90 lj/cut 8.50000

# Read data file
read_data frag5.dat
Reading data file ...
  triclinic box = (0.0000000 0.0000000 0.0000000) to (15.000000 15.000000 15.000000) with tilt (0.0000000 0.0000000 0.0000000)
  reading atoms ...
  1506 atoms
  scanning bonds ...
  scanning angles ...
  scanning dihedrals ...
  reading bonds ...
  1005 bonds
  reading angles ...
  507 angles
  reading dihedrals ...
  3 dihedrals
Finding 1-2 1-3 1-4 neighbors ...
     4 = max # of 1-2 neighbors
     3 = max # of 1-3 neighbors
     5 = max # of special neighbors

# Dreiding potential information

bond_coeff 1 350 1.371
bond_coeff 2 350 1.42
bond_coeff 3 350 0.98

angle_coeff 1 50 109.471
angle_coeff 2 50 104.51

dihedral_coeff 1 0.333333333333333 -1 3

improper_coeff 1 40 0

pair_coeff 1 1 lj/cut 0.0725 3.472
pair_coeff 1 2 lj/cut 0.0830346313293435 3.67898051095681
pair_coeff 1 3 lj/cut 0.0832961583748014 3.43813484319623
pair_coeff 1 4 lj/cut 0.00269258240356725 3.32957895236019
pair_coeff 2 2 lj/cut 0.0951 3.8983
pair_coeff 2 3 lj/cut 0.0953995283007206 3.64309650983885
pair_coeff 2 4 lj/cut 0.00308382878902186 3.52806914614779
pair_coeff 3 3 lj/cut 0.0957 3.4046
pair_coeff 3 4 lj/cut 0.0030935416596516 3.29710294046152
pair_coeff 4 4 lj/cut 1e-04 3.193
pair_coeff 1 3 hbond/dreiding/lj 4 j 9.50 2.75 4 9.0 11.0 90
pair_coeff 3 3 hbond/dreiding/lj 4 j 9.50 2.75 4 9.0 11.0 90

neighbor 2 bin
neigh_modify every 2 one 10000

# Gemoetric relaxation
fix 1 all box/relax iso 1.0 vmax 0.001
minimize 1.0e-4 1.0e-6 10000 10000
  update every 1 steps, delay 0 steps, check yes
Step Temp E_pair E_mol TotEng Press Volume
0            0 2.6271727e+17    200.46946 2.6271727e+17 2.1350053e+19         3375
Loop time of 4.58967 on 32 procs for 5697 steps with 1506 atoms

Minimization stats:
  Stopping criterion = energy tolerance
  Energy initial, next-to-last, final =
  Force two-norm initial, final = 3.2239858e+19 83.305216
  Force max component initial, final = 1.3745196e+19 34.144917
  Final line search alpha, max atom move = 9.2095084e-06 0.00031445790
  Iterations, force evaluations = 5697 5697

# MD simulation
velocity all create 300.0 12345 rot yes dist gaussian
timestep 1.0
fix 2 all nvt temp 300.0 300.0 1

# Compute interaction energy
group WAT molecule <> 2 501
1500 atoms in group WAT
group MOL molecule 1
6 atoms in group MOL

compute w WAT group/group MOL pair yes
fix 3 all ave/time 10 5 100 c_w file outa

# Outputs
thermo 100 # Output thermodynamic data every nth step
#dump mf1 all xyz 10000 mol_*.xyz

# Run
run 1000000
  update every 2 steps, delay 10 steps, check yes
Step Temp E_pair E_mol TotEng Press Volume
5697          300   -1085.2108    19.636399    280.26136    1609.0129    39359.762
Averages over the last 5001 of 10002 rows, steps 505700 to 1005697:
Temp E_pair E_mol TotEng Press Volume
300.079 -1487.62 474.766 333.336 -25.6345 39359.8
Loop time of 599.991 on 32 procs for 1000000 steps with 1506 atoms

# Output the system volume
variable v equal vol
print 'The system volume is $v'
The system volume is 39359.762476408

# Outputs
variable A equal xhi-xlo
variable B equal yhi-ylo
variable C equal zhi-zlo
variable D equal xy
variable E equal xz
variable F equal yz
print 'Lattice vectors'
Lattice vectors
print '$A 0 0'
print '$D $B 0'
print '$E $F $C'
