LAMMPS (29 Sep 2021 - Update 1)
# Test LAMMPS input file for single DeFDe

# Initialize simulation

clear

units real
atom_style full
boundary p p p
dielectric 1
special_bonds dreiding

bond_style harmonic
angle_style harmonic
dihedral_style harmonic
improper_style umbrella
pair_style hybrid/overlay hbond/dreiding/lj 4 9.0 11.0 90 lj/cut 8.50000

# Read data file
read_data frag5.dat
Reading data file ...
  triclinic box = (0.0000000 0.0000000 0.0000000) to (15.000000 15.000000 15.000000) with tilt (0.0000000 0.0000000 0.0000000)
  reading atoms ...
  1506 atoms
  scanning bonds ...
  scanning angles ...
  scanning dihedrals ...
  scanning impropers ...
  reading bonds ...
  1005 bonds
  reading angles ...
  506 angles
  reading dihedrals ...
  4 dihedrals
  reading impropers ...
  2 impropers
Finding 1-2 1-3 1-4 neighbors ...
     3 = max # of 1-2 neighbors
     2 = max # of 1-3 neighbors
     5 = max # of special neighbors

# Dreiding potential information

bond_coeff 1 700 1.22
bond_coeff 2 700 1.275
bond_coeff 3 350 0.935
bond_coeff 4 350 0.99
bond_coeff 5 350 0.98

angle_coeff 1 50 120
angle_coeff 2 50 120
angle_coeff 3 50 104.51

dihedral_coeff 1 5.625 -1 2

improper_coeff 1 40 0

pair_coeff 1 1 lj/cut 0.0957 3.4046
pair_coeff 1 2 lj/cut 0.0860649754545948 3.53100349192691
pair_coeff 1 3 lj/cut 0.0953995283007206 3.64309650983885
pair_coeff 1 4 lj/cut 0.0030935416596516 3.29710294046152
pair_coeff 1 5 lj/cut 0.0381397430510485 3.29813538230316
pair_coeff 1 6 lj/cut 0.0957 3.4046
pair_coeff 2 2 lj/cut 0.0774 3.6621
pair_coeff 2 3 lj/cut 0.0857947550844456 3.77835472527395
pair_coeff 2 4 lj/cut 0.00278208554864871 3.41951536039831
pair_coeff 2 5 lj/cut 0.0342998542270955 3.42058613398347
pair_coeff 2 6 lj/cut 0.0860649754545948 3.53100349192691
pair_coeff 3 3 lj/cut 0.0951 3.8983
pair_coeff 3 4 lj/cut 0.00308382878902186 3.52806914614779
pair_coeff 3 5 lj/cut 0.0380199947396104 3.52917391183829
pair_coeff 3 6 lj/cut 0.0953995283007206 3.64309650983885
pair_coeff 4 4 lj/cut 1e-04 3.193
pair_coeff 4 5 lj/cut 0.0012328828005938 3.19399984345648
pair_coeff 4 6 lj/cut 0.0030935416596516 3.29710294046152
pair_coeff 5 5 lj/cut 0.0152 3.195
pair_coeff 5 6 lj/cut 0.0381397430510485 3.29813538230316
pair_coeff 6 6 lj/cut 0.0957 3.4046
pair_coeff 1 2 hbond/dreiding/lj 4 j 9.50 2.75 4 9.0 11.0 90
pair_coeff 2 2 hbond/dreiding/lj 4 j 9.50 2.75 4 9.0 11.0 90
pair_coeff 2 6 hbond/dreiding/lj 4 i 9.50 2.75 4 9.0 11.0 90
pair_coeff 1 6 hbond/dreiding/lj 4 j 9.50 2.75 4 9.0 11.0 90
pair_coeff 2 6 hbond/dreiding/lj 4 j 9.50 2.75 4 9.0 11.0 90
pair_coeff 6 6 hbond/dreiding/lj 4 j 9.50 2.75 4 9.0 11.0 90

neighbor 2 bin
neigh_modify every 2 one 10000

# Gemoetric relaxation
fix 1 all box/relax iso 1.0 vmax 0.001
minimize 1.0e-4 1.0e-6 10000 10000
  update every 1 steps, delay 0 steps, check yes
Step Temp E_pair E_mol TotEng Press Volume
0            0 4.2956816e+17    269.86096 4.2956816e+17 3.4909402e+19         3375
Loop time of 5.16984 on 32 procs for 5042 steps with 1506 atoms

Minimization stats:
  Stopping criterion = energy tolerance
  Energy initial, next-to-last, final =
  Force two-norm initial, final = 8.0664067e+19 99.143508
  Force max component initial, final = 4.7385700e+19 69.664924
  Final line search alpha, max atom move = 1.5077514e-05 0.0010503738
  Iterations, force evaluations = 5042 5043

# MD simulation
velocity all create 300.0 12345 rot yes dist gaussian
timestep 1.0
fix 2 all nvt temp 300.0 300.0 1

# Compute interaction energy
group WAT molecule <> 2 501
1500 atoms in group WAT
group MOL molecule 1
6 atoms in group MOL

compute w WAT group/group MOL pair yes
fix 3 all ave/time 10 5 100 c_w file outa

# Outputs
thermo 100 # Output thermodynamic data every nth step
#dump mf1 all xyz 10000 mol_*.xyz

# Run
run 1000000
  update every 2 steps, delay 10 steps, check yes
Step Temp E_pair E_mol TotEng Press Volume
5042          300   -920.82119    15.751133    440.76568     1575.617    41402.763
Averages over the last 5001 of 10002 rows, steps 505100 to 1005042:
Temp E_pair E_mol TotEng Press Volume
299.877 -1464.58 474.274 354.979 -8.68702 41402.8
Loop time of 614.823 on 32 procs for 1000000 steps with 1506 atoms

# Output the system volume
variable v equal vol
print 'The system volume is $v'
The system volume is 41402.7631381494

# Outputs
variable A equal xhi-xlo
variable B equal yhi-ylo
variable C equal zhi-zlo
variable D equal xy
variable E equal xz
variable F equal yz
print 'Lattice vectors'
Lattice vectors
print '$A 0 0'
print '$D $B 0'
print '$E $F $C'
