LAMMPS (29 Sep 2021 - Update 1)
# Test LAMMPS input file for single DeFDe

# Initialize simulation

clear

units real
atom_style full
boundary p p p
dielectric 1
special_bonds dreiding

bond_style harmonic
angle_style harmonic
dihedral_style harmonic
improper_style umbrella
pair_style hybrid/overlay hbond/dreiding/lj 4 9.0 11.0 90 lj/cut 8.50000

# Read data file
read_data frag5.dat
Reading data file ...
  triclinic box = (0.0000000 0.0000000 0.0000000) to (15.000000 15.000000 15.000000) with tilt (0.0000000 0.0000000 0.0000000)
  reading atoms ...
  1502 atoms
  scanning bonds ...
  scanning angles ...
  reading bonds ...
  1001 bonds
  reading angles ...
  500 angles
Finding 1-2 1-3 1-4 neighbors ...
     2 = max # of 1-2 neighbors
     1 = max # of 1-3 neighbors
     2 = max # of special neighbors

# Dreiding potential information

bond_coeff 1 350 1.487
bond_coeff 2 350 0.98

angle_coeff 1 50 104.51

improper_coeff 1 40 0

pair_coeff 1 1 lj/cut 0.37 3.95
pair_coeff 1 2 lj/cut 0.0749933330370107 3.55249912033768
pair_coeff 1 3 lj/cut 0.00608276253029822 3.55138705296959
pair_coeff 1 4 lj/cut 0.188172792932453 3.66717466177983
pair_coeff 2 2 lj/cut 0.0152 3.195
pair_coeff 2 3 lj/cut 0.0012328828005938 3.19399984345648
pair_coeff 2 4 lj/cut 0.0381397430510485 3.29813538230316
pair_coeff 3 3 lj/cut 1e-04 3.193
pair_coeff 3 4 lj/cut 0.0030935416596516 3.29710294046152
pair_coeff 4 4 lj/cut 0.0957 3.4046
pair_coeff 4 4 hbond/dreiding/lj 3 j 9.50 2.75 4 9.0 11.0 90

neighbor 2 bin
neigh_modify every 2 one 10000

# Gemoetric relaxation
fix 1 all box/relax iso 1.0 vmax 0.001
minimize 1.0e-4 1.0e-6 10000 10000
  update every 1 steps, delay 0 steps, check yes
Step Temp E_pair E_mol TotEng Press Volume
0            0 1.5002747e+16    185.59821 1.5002747e+16 1.2192173e+18         3375
Loop time of 4.408 on 32 procs for 5404 steps with 1502 atoms

Minimization stats:
  Stopping criterion = energy tolerance
  Energy initial, next-to-last, final =
  Force two-norm initial, final = 1.6097212e+18 123.67959
  Force max component initial, final = 8.8582859e+17 98.260573
  Final line search alpha, max atom move = 2.0052344e-05 0.0019703548
  Iterations, force evaluations = 5404 5405

# MD simulation
velocity all create 300.0 12345 rot yes dist gaussian
timestep 1.0
fix 2 all nvt temp 300.0 300.0 1

# Compute interaction energy
group WAT molecule <> 2 501
1500 atoms in group WAT
group MOL molecule 1
2 atoms in group MOL

compute w WAT group/group MOL pair yes
fix 3 all ave/time 10 5 100 c_w file outa

# Outputs
thermo 100 # Output thermodynamic data every nth step
#dump mf1 all xyz 10000 mol_*.xyz

# Run
run 1000000
  update every 2 steps, delay 10 steps, check yes
Step Temp E_pair E_mol TotEng Press Volume
5404          300   -1055.1104    19.186557    306.33497    1823.1013    36397.316
Averages over the last 5001 of 10002 rows, steps 505500 to 1005404:
Temp E_pair E_mol TotEng Press Volume
299.792 -1534.97 474.463 280.818 11.486 36397.3
Loop time of 598.458 on 32 procs for 1000000 steps with 1502 atoms

# Output the system volume
variable v equal vol
print 'The system volume is $v'
The system volume is 36397.3164107168

# Outputs
variable A equal xhi-xlo
variable B equal yhi-ylo
variable C equal zhi-zlo
variable D equal xy
variable E equal xz
variable F equal yz
print 'Lattice vectors'
Lattice vectors
print '$A 0 0'
print '$D $B 0'
print '$E $F $C'
